/*--------------------------------*- C++ -*----------------------------------*\
| =========                 |                                                 |
| \\      /  F ield         | OpenFOAM: The Open Source CFD Toolbox           |
|  \\    /   O peration     | Version:  4.1                                   |
|   \\  /    A nd           | Web:      www.OpenFOAM.org                      |
|    \\/     M anipulation  |                                                 |
\*---------------------------------------------------------------------------*/
FoamFile
{
    version     2.0;
    format      ascii;
    class       dictionary;
    object      blockMeshDict;
}
// * * * * * * * * * * * * * * * * * * * * * * * * * * * * * * * * * * * * * //

convertToMeters 1;

vertices
(
    (0 0 0)
    (2 0 0)
    (2 2 0)
    (0 2 0)
    (0 0 1)
    (2 0 1)
    (2 2 1)
    (0 2 1)
);

blocks
(
    hex (0 1 2 3 4 5 6 7) (20 20 20) simpleGrading (1 1 1)
);

edges
(
);

boundary
(
    floor
    {
        type wall;
        faces
        (
            (0 3 2 1)
        );
    }
    ceiling
    {
        type wall;
        faces
        (
            (4 5 6 7)
        );
    }
    patch0_half0
    {
        type cyclic;
        neighbourPatch patch0_half1;
        faces
        (
            (0 4 7 3)
        );
    }
    patch0_half1
    {
        type cyclic;
        neighbourPatch patch0_half0;
        faces
        (
            (2 6 5 1)
        );
    }
    patch1_half0
    {
        type cyclic;
        neighbourPatch patch1_half1;
        faces
        (
            (0 1 5 4)
        );
    }
    patch1_half1
    {
        type cyclic;
        neighbourPatch patch1_half0;
        faces
        (
            (7 6 2 3)
        );
    }

);

mergePatchPairs
(
);

// ************************************************************************* //
